Version 4
SHEET 1 880 680
WIRE 272 -16 96 -16
WIRE 304 -16 272 -16
WIRE 416 -16 384 -16
WIRE 272 80 272 -16
WIRE 416 80 416 -16
WIRE 112 160 -16 160
WIRE 224 160 112 160
WIRE 304 304 272 304
WIRE 416 304 384 304
WIRE 272 400 272 304
WIRE 416 400 416 304
WIRE 224 480 192 480
FLAG -96 160 0
FLAG 416 160 0
FLAG 272 176 0
FLAG 112 480 0
FLAG 416 480 0
FLAG 272 496 0
FLAG 112 160 bramka
FLAG 96 -16 dren
SYMBOL nmos 224 80 R0
SYMATTR InstName M1
SYMATTR Value IRFZ44N
SYMBOL voltage 0 160 R90
WINDOW 0 -32 56 VBottom 2
WINDOW 3 32 56 VTop 2
WINDOW 123 0 0 Left 0
WINDOW 39 0 0 Left 0
SYMATTR InstName V1
SYMATTR Value PULSE(0 5 0 1n 1n 500u 1m)
SYMBOL voltage 416 64 R0
SYMATTR InstName V2
SYMATTR Value 24
SYMBOL res 400 -32 R90
WINDOW 0 0 56 VBottom 2
WINDOW 3 32 56 VTop 2
SYMATTR InstName R1
SYMATTR Value 10
SYMBOL nmos 224 400 R0
SYMATTR InstName M2
SYMATTR Value IRFZ44N
SYMBOL voltage 208 480 R90
WINDOW 0 -32 56 VBottom 2
WINDOW 3 32 56 VTop 2
WINDOW 123 0 0 Left 0
WINDOW 39 0 0 Left 0
SYMATTR InstName V3
SYMATTR Value 4.4188082
SYMBOL voltage 416 384 R0
SYMATTR InstName V4
SYMATTR Value 24
SYMBOL res 400 288 R90
WINDOW 0 0 56 VBottom 2
WINDOW 3 32 56 VTop 2
SYMATTR InstName R2
SYMATTR Value 10
TEXT -28 546 Left 2 !.tran 100m
